Version 4
SHEET 1 880 680
WIRE 48 -48 48 -128
WIRE 64 -48 48 -48
WIRE 160 -48 160 -128
WIRE 160 -48 144 -48
WIRE 48 64 48 -48
WIRE 48 64 -112 64
WIRE 64 64 48 64
WIRE 160 64 160 -48
WIRE 160 64 144 64
WIRE 208 64 160 64
WIRE 336 64 272 64
WIRE -112 160 -112 64
WIRE -112 160 -240 160
WIRE -240 192 -240 160
WIRE -240 304 -240 272
WIRE 256 304 -240 304
WIRE 416 304 416 64
WIRE 416 304 256 304
WIRE 256 416 256 304
FLAG 256 416 0
SYMBOL res 160 48 R90
WINDOW 0 0 56 VBottom 2
WINDOW 3 32 56 VTop 2
SYMATTR InstName R1
SYMATTR Value 250
SYMBOL cap 272 48 R90
WINDOW 0 0 32 VBottom 2
WINDOW 3 32 32 VTop 2
SYMATTR InstName C1
SYMATTR Value 5.8521e-15
SYMBOL ind 320 80 R270
WINDOW 0 32 56 VTop 2
WINDOW 3 5 56 VBottom 2
SYMATTR InstName L1
SYMATTR Value 397.9e-6
SYMBOL voltage -240 176 R0
WINDOW 123 0 0 Left 2
WINDOW 39 0 0 Left 2
SYMATTR InstName V1
SYMATTR Value AC 9
SYMBOL res 160 -64 R90
WINDOW 0 0 56 VBottom 2
WINDOW 3 32 56 VTop 2
SYMATTR InstName R2
SYMATTR Value 1Meg
TEXT -146 440 Left 2 !.ac oct 100000 103e6 105e6
TEXT 80 -152 Left 2 ;Vout
TEXT -328 232 Left 2 ;Vin
TEXT -920 -176 Left 2 ;Simple RCL Bandpass Filter, tuned to 104.3MHz.
